Geom Title=unsteady_geo
Program Version=6.60
Viewing Rectangle= 406962.867032862 , 407731.867032862 , 4361175.18138813 , 4360012.18138813 

Storage Area=flow_area       ,407430.6475127,4360563.7701836
Storage Area Surface Line= 7 
407434.0550275854361116.87795805                
407434.3664490144361117.77799951                
407433.787654103 4361117.1992046                
407716.3663732324361057.04022718                
407498.4956608314360022.92149367                
407091.9059510684360159.47426412                
407434.0550275854361116.87795805                
Storage Area Type= 1 
Storage Area Area=
Storage Area Min Elev=
Storage Area Is2D=-1
Storage Area Point Generation Data=0,0,25,25
Storage Area 2D Points= 565 
407454.4059510684361105.27799951407429.4059510684361080.27799951
407454.4059510684361080.27799951407479.4059510684361080.27799951
407504.4059510684361080.27799951407529.4059510684361080.27799951
407554.4059510684361080.27799951407429.4059510684361055.27799951
407454.4059510684361055.27799951407479.4059510684361055.27799951
407504.4059510684361055.27799951407529.4059510684361055.27799951
407554.4059510684361055.27799951407579.4059510684361055.27799951
407604.4059510684361055.27799951407629.4059510684361055.27799951
407654.4059510684361055.27799951407679.4059510684361055.27799951
407429.4059510684361030.27799951407454.4059510684361030.27799951
407479.4059510684361030.27799951407504.4059510684361030.27799951
407529.4059510684361030.27799951407554.4059510684361030.27799951
407579.4059510684361030.27799951407604.4059510684361030.27799951
407629.4059510684361030.27799951407654.4059510684361030.27799951
407679.4059510684361030.27799951407404.4059510684361005.27799951
407429.4059510684361005.27799951407454.4059510684361005.27799951
407479.4059510684361005.27799951407504.4059510684361005.27799951
407529.4059510684361005.27799951407554.4059510684361005.27799951
407579.4059510684361005.27799951407604.4059510684361005.27799951
407629.4059510684361005.27799951407654.4059510684361005.27799951
407679.4059510684361005.27799951407404.4059510684360980.27799951
407429.4059510684360980.27799951407454.4059510684360980.27799951
407479.4059510684360980.27799951407504.4059510684360980.27799951
407529.4059510684360980.27799951407554.4059510684360980.27799951
407579.4059510684360980.27799951407604.4059510684360980.27799951
407629.4059510684360980.27799951407654.4059510684360980.27799951
407679.4059510684360980.27799951407404.4059510684360955.27799951
407429.4059510684360955.27799951407454.4059510684360955.27799951
407479.4059510684360955.27799951407504.4059510684360955.27799951
407529.4059510684360955.27799951407554.4059510684360955.27799951
407579.4059510684360955.27799951407604.4059510684360955.27799951
407629.4059510684360955.27799951407654.4059510684360955.27799951
407679.4059510684360955.27799951407379.4059510684360930.27799951
407404.4059510684360930.27799951407429.4059510684360930.27799951
407454.4059510684360930.27799951407479.4059510684360930.27799951
407504.4059510684360930.27799951407529.4059510684360930.27799951
407554.4059510684360930.27799951407579.4059510684360930.27799951
407604.4059510684360930.27799951407629.4059510684360930.27799951
407654.4059510684360930.27799951407679.4059510684360930.27799951
407379.4059510684360905.27799951407404.4059510684360905.27799951
407429.4059510684360905.27799951407454.4059510684360905.27799951
407479.4059510684360905.27799951407504.4059510684360905.27799951
407529.4059510684360905.27799951407554.4059510684360905.27799951
407579.4059510684360905.27799951407604.4059510684360905.27799951
407629.4059510684360905.27799951407654.4059510684360905.27799951
407379.4059510684360880.27799951407404.4059510684360880.27799951
407429.4059510684360880.27799951407454.4059510684360880.27799951
407479.4059510684360880.27799951407504.4059510684360880.27799951
407529.4059510684360880.27799951407554.4059510684360880.27799951
407579.4059510684360880.27799951407604.4059510684360880.27799951
407629.4059510684360880.27799951407654.4059510684360880.27799951
407354.4059510684360855.27799951407379.4059510684360855.27799951
407404.4059510684360855.27799951407429.4059510684360855.27799951
407454.4059510684360855.27799951407479.4059510684360855.27799951
407504.4059510684360855.27799951407529.4059510684360855.27799951
407554.4059510684360855.27799951407579.4059510684360855.27799951
407604.4059510684360855.27799951407629.4059510684360855.27799951
407654.4059510684360855.27799951407354.4059510684360830.27799951
407379.4059510684360830.27799951407404.4059510684360830.27799951
407429.4059510684360830.27799951407454.4059510684360830.27799951
407479.4059510684360830.27799951407504.4059510684360830.27799951
407529.4059510684360830.27799951407554.4059510684360830.27799951
407579.4059510684360830.27799951407604.4059510684360830.27799951
407629.4059510684360830.27799951407654.4059510684360830.27799951
407329.4059510684360805.27799951407354.4059510684360805.27799951
407379.4059510684360805.27799951407404.4059510684360805.27799951
407429.4059510684360805.27799951407454.4059510684360805.27799951
407479.4059510684360805.27799951407504.4059510684360805.27799951
407529.4059510684360805.27799951407554.4059510684360805.27799951
407579.4059510684360805.27799951407604.4059510684360805.27799951
407629.4059510684360805.27799951407654.4059510684360805.27799951
407329.4059510684360780.27799951407354.4059510684360780.27799951
407379.4059510684360780.27799951407404.4059510684360780.27799951
407429.4059510684360780.27799951407454.4059510684360780.27799951
407479.4059510684360780.27799951407504.4059510684360780.27799951
407529.4059510684360780.27799951407554.4059510684360780.27799951
407579.4059510684360780.27799951407604.4059510684360780.27799951
407629.4059510684360780.27799951407329.4059510684360755.27799951
407354.4059510684360755.27799951407379.4059510684360755.27799951
407404.4059510684360755.27799951407429.4059510684360755.27799951
407454.4059510684360755.27799951407479.4059510684360755.27799951
407504.4059510684360755.27799951407529.4059510684360755.27799951
407554.4059510684360755.27799951407579.4059510684360755.27799951
407604.4059510684360755.27799951407629.4059510684360755.27799951
407304.4059510684360730.27799951407329.4059510684360730.27799951
407354.4059510684360730.27799951407379.4059510684360730.27799951
407404.4059510684360730.27799951407429.4059510684360730.27799951
407454.4059510684360730.27799951407479.4059510684360730.27799951
407504.4059510684360730.27799951407529.4059510684360730.27799951
407554.4059510684360730.27799951407579.4059510684360730.27799951
407604.4059510684360730.27799951407629.4059510684360730.27799951
407304.4059510684360705.27799951407329.4059510684360705.27799951
407354.4059510684360705.27799951407379.4059510684360705.27799951
407404.4059510684360705.27799951407429.4059510684360705.27799951
407454.4059510684360705.27799951407479.4059510684360705.27799951
407504.4059510684360705.27799951407529.4059510684360705.27799951
407554.4059510684360705.27799951407579.4059510684360705.27799951
407604.4059510684360705.27799951407629.4059510684360705.27799951
407304.4059510684360680.27799951407329.4059510684360680.27799951
407354.4059510684360680.27799951407379.4059510684360680.27799951
407404.4059510684360680.27799951407429.4059510684360680.27799951
407454.4059510684360680.27799951407479.4059510684360680.27799951
407504.4059510684360680.27799951407529.4059510684360680.27799951
407554.4059510684360680.27799951407579.4059510684360680.27799951
407604.4059510684360680.27799951407629.4059510684360680.27799951
407279.4059510684360655.27799951407304.4059510684360655.27799951
407329.4059510684360655.27799951407354.4059510684360655.27799951
407379.4059510684360655.27799951407404.4059510684360655.27799951
407429.4059510684360655.27799951407454.4059510684360655.27799951
407479.4059510684360655.27799951407504.4059510684360655.27799951
407529.4059510684360655.27799951407554.4059510684360655.27799951
407579.4059510684360655.27799951407604.4059510684360655.27799951
407279.4059510684360630.27799951407304.4059510684360630.27799951
407329.4059510684360630.27799951407354.4059510684360630.27799951
407379.4059510684360630.27799951407404.4059510684360630.27799951
407429.4059510684360630.27799951407454.4059510684360630.27799951
407479.4059510684360630.27799951407504.4059510684360630.27799951
407529.4059510684360630.27799951407554.4059510684360630.27799951
407579.4059510684360630.27799951407604.4059510684360630.27799951
407279.4059510684360605.27799951407304.4059510684360605.27799951
407329.4059510684360605.27799951407354.4059510684360605.27799951
407379.4059510684360605.27799951407404.4059510684360605.27799951
407429.4059510684360605.27799951407454.4059510684360605.27799951
407479.4059510684360605.27799951407504.4059510684360605.27799951
407529.4059510684360605.27799951407554.4059510684360605.27799951
407579.4059510684360605.27799951407604.4059510684360605.27799951
407254.4059510684360580.27799951407279.4059510684360580.27799951
407304.4059510684360580.27799951407329.4059510684360580.27799951
407354.4059510684360580.27799951407379.4059510684360580.27799951
407404.4059510684360580.27799951407429.4059510684360580.27799951
407454.4059510684360580.27799951407479.4059510684360580.27799951
407504.4059510684360580.27799951407529.4059510684360580.27799951
407554.4059510684360580.27799951407579.4059510684360580.27799951
407604.4059510684360580.27799951407254.4059510684360555.27799951
407279.4059510684360555.27799951407304.4059510684360555.27799951
407329.4059510684360555.27799951407354.4059510684360555.27799951
407379.4059510684360555.27799951407404.4059510684360555.27799951
407429.4059510684360555.27799951407454.4059510684360555.27799951
407479.4059510684360555.27799951407504.4059510684360555.27799951
407529.4059510684360555.27799951407554.4059510684360555.27799951
407579.4059510684360555.27799951407254.4059510684360530.27799951
407279.4059510684360530.27799951407304.4059510684360530.27799951
407329.4059510684360530.27799951407354.4059510684360530.27799951
407379.4059510684360530.27799951407404.4059510684360530.27799951
407429.4059510684360530.27799951407454.4059510684360530.27799951
407479.4059510684360530.27799951407504.4059510684360530.27799951
407529.4059510684360530.27799951407554.4059510684360530.27799951
407579.4059510684360530.27799951407229.4059510684360505.27799951
407254.4059510684360505.27799951407279.4059510684360505.27799951
407304.4059510684360505.27799951407329.4059510684360505.27799951
407354.4059510684360505.27799951407379.4059510684360505.27799951
407404.4059510684360505.27799951407429.4059510684360505.27799951
407454.4059510684360505.27799951407479.4059510684360505.27799951
407504.4059510684360505.27799951407529.4059510684360505.27799951
407554.4059510684360505.27799951407579.4059510684360505.27799951
407229.4059510684360480.27799951407254.4059510684360480.27799951
407279.4059510684360480.27799951407304.4059510684360480.27799951
407329.4059510684360480.27799951407354.4059510684360480.27799951
407379.4059510684360480.27799951407404.4059510684360480.27799951
407429.4059510684360480.27799951407454.4059510684360480.27799951
407479.4059510684360480.27799951407504.4059510684360480.27799951
407529.4059510684360480.27799951407554.4059510684360480.27799951
407579.4059510684360480.27799951407204.4059510684360455.27799951
407229.4059510684360455.27799951407254.4059510684360455.27799951
407279.4059510684360455.27799951407304.4059510684360455.27799951
407329.4059510684360455.27799951407354.4059510684360455.27799951
407379.4059510684360455.27799951407404.4059510684360455.27799951
407429.4059510684360455.27799951407454.4059510684360455.27799951
407479.4059510684360455.27799951407504.4059510684360455.27799951
407529.4059510684360455.27799951407554.4059510684360455.27799951
407579.4059510684360455.27799951407204.4059510684360430.27799951
407229.4059510684360430.27799951407254.4059510684360430.27799951
407279.4059510684360430.27799951407304.4059510684360430.27799951
407329.4059510684360430.27799951407354.4059510684360430.27799951
407379.4059510684360430.27799951407404.4059510684360430.27799951
407429.4059510684360430.27799951407454.4059510684360430.27799951
407479.4059510684360430.27799951407504.4059510684360430.27799951
407529.4059510684360430.27799951407554.4059510684360430.27799951
407204.4059510684360405.27799951407229.4059510684360405.27799951
407254.4059510684360405.27799951407279.4059510684360405.27799951
407304.4059510684360405.27799951407329.4059510684360405.27799951
407354.4059510684360405.27799951407379.4059510684360405.27799951
407404.4059510684360405.27799951407429.4059510684360405.27799951
407454.4059510684360405.27799951407479.4059510684360405.27799951
407504.4059510684360405.27799951407529.4059510684360405.27799951
407554.4059510684360405.27799951407179.4059510684360380.27799951
407204.4059510684360380.27799951407229.4059510684360380.27799951
407254.4059510684360380.27799951407279.4059510684360380.27799951
407304.4059510684360380.27799951407329.4059510684360380.27799951
407354.4059510684360380.27799951407379.4059510684360380.27799951
407404.4059510684360380.27799951407429.4059510684360380.27799951
407454.4059510684360380.27799951407479.4059510684360380.27799951
407504.4059510684360380.27799951407529.4059510684360380.27799951
407554.4059510684360380.27799951407179.4059510684360355.27799951
407204.4059510684360355.27799951407229.4059510684360355.27799951
407254.4059510684360355.27799951407279.4059510684360355.27799951
407304.4059510684360355.27799951407329.4059510684360355.27799951
407354.4059510684360355.27799951407379.4059510684360355.27799951
407404.4059510684360355.27799951407429.4059510684360355.27799951
407454.4059510684360355.27799951407479.4059510684360355.27799951
407504.4059510684360355.27799951407529.4059510684360355.27799951
407554.4059510684360355.27799951407179.4059510684360330.27799951
407204.4059510684360330.27799951407229.4059510684360330.27799951
407254.4059510684360330.27799951407279.4059510684360330.27799951
407304.4059510684360330.27799951407329.4059510684360330.27799951
407354.4059510684360330.27799951407379.4059510684360330.27799951
407404.4059510684360330.27799951407429.4059510684360330.27799951
407454.4059510684360330.27799951407479.4059510684360330.27799951
407504.4059510684360330.27799951407529.4059510684360330.27799951
407554.4059510684360330.27799951407154.4059510684360305.27799951
407179.4059510684360305.27799951407204.4059510684360305.27799951
407229.4059510684360305.27799951407254.4059510684360305.27799951
407279.4059510684360305.27799951407304.4059510684360305.27799951
407329.4059510684360305.27799951407354.4059510684360305.27799951
407379.4059510684360305.27799951407404.4059510684360305.27799951
407429.4059510684360305.27799951407454.4059510684360305.27799951
407479.4059510684360305.27799951407504.4059510684360305.27799951
407529.4059510684360305.27799951407154.4059510684360280.27799951
407179.4059510684360280.27799951407204.4059510684360280.27799951
407229.4059510684360280.27799951407254.4059510684360280.27799951
407279.4059510684360280.27799951407304.4059510684360280.27799951
407329.4059510684360280.27799951407354.4059510684360280.27799951
407379.4059510684360280.27799951407404.4059510684360280.27799951
407429.4059510684360280.27799951407454.4059510684360280.27799951
407479.4059510684360280.27799951407504.4059510684360280.27799951
407529.4059510684360280.27799951407154.4059510684360255.27799951
407179.4059510684360255.27799951407204.4059510684360255.27799951
407229.4059510684360255.27799951407254.4059510684360255.27799951
407279.4059510684360255.27799951407304.4059510684360255.27799951
407329.4059510684360255.27799951407354.4059510684360255.27799951
407379.4059510684360255.27799951407404.4059510684360255.27799951
407429.4059510684360255.27799951407454.4059510684360255.27799951
407479.4059510684360255.27799951407504.4059510684360255.27799951
407529.4059510684360255.27799951407129.4059510684360230.27799951
407154.4059510684360230.27799951407179.4059510684360230.27799951
407204.4059510684360230.27799951407229.4059510684360230.27799951
407254.4059510684360230.27799951407279.4059510684360230.27799951
407304.4059510684360230.27799951407329.4059510684360230.27799951
407354.4059510684360230.27799951407379.4059510684360230.27799951
407404.4059510684360230.27799951407429.4059510684360230.27799951
407454.4059510684360230.27799951407479.4059510684360230.27799951
407504.4059510684360230.27799951407529.4059510684360230.27799951
407129.4059510684360205.27799951407154.4059510684360205.27799951
407179.4059510684360205.27799951407204.4059510684360205.27799951
407229.4059510684360205.27799951407254.4059510684360205.27799951
407279.4059510684360205.27799951407304.4059510684360205.27799951
407329.4059510684360205.27799951407354.4059510684360205.27799951
407379.4059510684360205.27799951407404.4059510684360205.27799951
407429.4059510684360205.27799951407454.4059510684360205.27799951
407479.4059510684360205.27799951407504.4059510684360205.27799951
407529.4059510684360205.27799951407129.4059510684360180.27799951
407154.4059510684360180.27799951407179.4059510684360180.27799951
407204.4059510684360180.27799951407229.4059510684360180.27799951
407254.4059510684360180.27799951407279.4059510684360180.27799951
407304.4059510684360180.27799951407329.4059510684360180.27799951
407354.4059510684360180.27799951407379.4059510684360180.27799951
407404.4059510684360180.27799951407429.4059510684360180.27799951
407454.4059510684360180.27799951407479.4059510684360180.27799951
407504.4059510684360180.27799951407129.4059510684360155.27799951
407154.4059510684360155.27799951407179.4059510684360155.27799951
407204.4059510684360155.27799951407229.4059510684360155.27799951
407254.4059510684360155.27799951407279.4059510684360155.27799951
407304.4059510684360155.27799951407329.4059510684360155.27799951
407354.4059510684360155.27799951407379.4059510684360155.27799951
407404.4059510684360155.27799951407429.4059510684360155.27799951
407454.4059510684360155.27799951407479.4059510684360155.27799951
407504.4059510684360155.27799951407204.4059510684360130.27799951
407229.4059510684360130.27799951407254.4059510684360130.27799951
407279.4059510684360130.27799951407304.4059510684360130.27799951
407329.4059510684360130.27799951407354.4059510684360130.27799951
407379.4059510684360130.27799951407404.4059510684360130.27799951
407429.4059510684360130.27799951407454.4059510684360130.27799951
407479.4059510684360130.27799951407504.4059510684360130.27799951
407279.4059510684360105.27799951407304.4059510684360105.27799951
407329.4059510684360105.27799951407354.4059510684360105.27799951
407379.4059510684360105.27799951407404.4059510684360105.27799951
407429.4059510684360105.27799951407454.4059510684360105.27799951
407479.4059510684360105.27799951407504.4059510684360105.27799951
407354.4059510684360080.27799951407379.4059510684360080.27799951
407404.4059510684360080.27799951407429.4059510684360080.27799951
407454.4059510684360080.27799951407479.4059510684360080.27799951
407429.4059510684360055.27799951407454.4059510684360055.27799951
407479.4059510684360055.27799951
Storage Area 2D PointsPerimeterTime=23Dec2025 03:56:43
Storage Area Mannings=0.06
2D Cell Volume Filter Tolerance=0.003
2D Cell Minimum Area Fraction=0.01
2D Face Profile Filter Tolerance=0.003
2D Face Area Elevation Profile Filter Tolerance=0.003
2D Face Area Elevation Conveyance Ratio=0.02
2D Face Min Length Ratio=0.05
2D Face Area Laminar Depth=0.06
2D Multiple Face Mann n=0
2D Composite LC=0

BC Line Name=upstream_boundary               
BC Line Storage Area=flow_area       
BC Line Start Position= 407585.628048319 , 4361086.65995791 
BC Line Middle Position= 407618.48831416 , 4361079.5319176 
BC Line End Position= 407651.348580001 , 4361072.40387729 
BC Line Arc= 2 
407585.6280483194361086.65995791407651.3485800014361072.40387729
BC Line Text Position= 407618.48831416 , 4361079.5319176 
BC Line Name=downstream_boundary             
BC Line Storage Area=flow_area       
BC Line Start Position= 407199.452249846 , 4360120.26972694 
BC Line Middle Position= 407269.002763217 , 4360097.23824546 
BC Line End Position= 407338.553276588 , 4360074.20676398 
BC Line Arc= 2 
407199.4522498464360120.26972694407338.5532765884360074.20676398
BC Line Text Position= 407269.002763217 , 4360097.23824546 
LCMann Time=Dec/30/1899 00:00:00
LCMann Region Time=Dec/30/1899 00:00:00
LCMann Table=0
Chan Stop Cuts=-1 



Use User Specified Reach Order=0
GIS Ratio Cuts To Invert=-1
GIS Limit At Bridges=0
Composite Channel Slope=5
